Version 4.1
SHEET 1 880 680
WIRE 256 32 112 32
WIRE 256 48 256 32
WIRE 112 96 112 32
WIRE 400 128 256 128
WIRE 256 160 256 128
WIRE 112 240 112 176
WIRE 368 240 368 224
FLAG 112 240 0
FLAG 256 240 0
FLAG 400 128 Output
FLAG 368 240 0
SYMBOL res 240 32 R0
SYMATTR InstName R1
SYMATTR Value 10k
SYMBOL res 240 144 R0
SYMATTR InstName R2
SYMATTR Value 20k
SYMBOL voltage 112 80 R0
WINDOW 123 0 0 Left 0
WINDOW 39 0 0 Left 0
SYMATTR InstName V1
SYMATTR Value 10
SYMBOL cap 352 160 R0
SYMATTR InstName C1
SYMATTR Value 10n
TEXT 0 352 Left 2 !.tran 10ms startup
